Circuit: * Example of Subcircuit usage

Fatal Error: No analysis request found.
