Circuit: * Macro-cell (Subcircuit) for ECE322 Lab2

Fatal Error: No analysis request found.
